Representative Networks Models/Representative Networks Models/matpower_urban.m
function mpc = matpower_urban
%Please see CASEFORMAT for details on the case file format.
%Example for running a case
%mpc = matpower_rnm_network_Inicial
%results=runpf(mpc);
% MATPOWER Case Format : Version 2
mpc.version = '2';
%-----  Power Flow Data  -----%%
% system MVA base
mpc.baseMVA = 1;
% bus data
%bus_i type Pd	Qd Gs Bs area Vm Va baseKV zone	Vmax Vmin
mpc.bus = [
1	3	0	0	0	0	1	1	0	20	1	1.1	0.9
2	1	0.0032	0.00096	0	0	1	1	0	0.4	1	1.1	0.9
3	1	0.0032	0.00096	0	0	1	1	0	0.4	1	1.1	0.9
4	1	0.0032	0.00096	0	0	1	1	0	0.4	1	1.1	0.9
5	1	0.0032	0.00096	0	0	1	1	0	0.4	1	1.1	0.9
6	1	0.0032	0.00096	0	0	1	1	0	0.4	1	1.1	0.9
7	1	0.0032	0.00096	0	0	1	1	0	0.4	1	1.1	0.9
8	1	0.0032	0.00096	0	0	1	1	0	0.4	1	1.1	0.9
9	1	0.0032	0.00096	0	0	1	1	0	0.4	1	1.1	0.9
10	1	0.0032	0.00096	0	0	1	1	0	0.4	1	1.1	0.9
11	1	0.0032	0.00096	0	0	1	1	0	0.4	1	1.1	0.9
12	1	0.0032	0.00096	0	0	1	1	0	0.4	1	1.1	0.9
13	1	0.0032	0.00096	0	0	1	1	0	0.4	1	1.1	0.9
14	1	0.0032	0.00096	0	0	1	1	0	0.4	1	1.1	0.9
15	1	0.0032	0.00096	0	0	1	1	0	0.4	1	1.1	0.9
16	1	0.0032	0.00096	0	0	1	1	0	0.4	1	1.1	0.9
17	1	0.0032	0.00096	0	0	1	1	0	0.4	1	1.1	0.9
18	1	0.0032	0.00096	0	0	1	1	0	0.4	1	1.1	0.9
19	1	0.0032	0.00096	0	0	1	1	0	0.4	1	1.1	0.9
20	1	0.0032	0.00096	0	0	1	1	0	0.4	1	1.1	0.9
21	1	0.0032	0.00096	0	0	1	1	0	0.4	1	1.1	0.9
22	1	0.0048	0.00144	0	0	1	1	0	0.4	1	1.1	0.9
23	1	0.0048	0.00144	0	0	1	1	0	0.4	1	1.1	0.9
24	1	0.0048	0.00144	0	0	1	1	0	0.4	1	1.1	0.9
25	1	0.0048	0.00144	0	0	1	1	0	0.4	1	1.1	0.9
26	1	0.0048	0.00144	0	0	1	1	0	0.4	1	1.1	0.9
27	1	0.0048	0.00144	0	0	1	1	0	0.4	1	1.1	0.9
28	1	0.0048	0.00144	0	0	1	1	0	0.4	1	1.1	0.9
29	1	0.0048	0.00144	0	0	1	1	0	0.4	1	1.1	0.9
30	1	0.0048	0.00144	0	0	1	1	0	0.4	1	1.1	0.9
31	1	0.0048	0.00144	0	0	1	1	0	0.4	1	1.1	0.9
32	1	0.0048	0.00144	0	0	1	1	0	0.4	1	1.1	0.9
33	1	0.0048	0.00144	0	0	1	1	0	0.4	1	1.1	0.9
34	1	0.0048	0.00144	0	0	1	1	0	0.4	1	1.1	0.9
35	1	0.0048	0.00144	0	0	1	1	0	0.4	1	1.1	0.9
36	1	0.0048	0.00144	0	0	1	1	0	0.4	1	1.1	0.9
37	1	0.0048	0.00144	0	0	1	1	0	0.4	1	1.1	0.9
38	1	0.0048	0.00144	0	0	1	1	0	0.4	1	1.1	0.9
39	1	0.0048	0.00144	0	0	1	1	0	0.4	1	1.1	0.9
40	1	0.0048	0.00144	0	0	1	1	0	0.4	1	1.1	0.9
41	1	0.0048	0.00144	0	0	1	1	0	0.4	1	1.1	0.9
42	1	0.0008	0.00024	0	0	1	1	0	0.4	1	1.1	0.9
43	1	0.0008	0.00024	0	0	1	1	0	0.4	1	1.1	0.9
44	1	0.0008	0.00024	0	0	1	1	0	0.4	1	1.1	0.9
45	1	0.0008	0.00024	0	0	1	1	0	0.4	1	1.1	0.9
46	1	0.0008	0.00024	0	0	1	1	0	0.4	1	1.1	0.9
47	1	0.0008	0.00024	0	0	1	1	0	0.4	1	1.1	0.9
48	1	0.0032	0.00096	0	0	1	1	0	0.4	1	1.1	0.9
49	1	0.0032	0.00096	0	0	1	1	0	0.4	1	1.1	0.9
50	1	0.0032	0.00096	0	0	1	1	0	0.4	1	1.1	0.9
51	1	0.0032	0.00096	0	0	1	1	0	0.4	1	1.1	0.9
52	1	0.0032	0.00096	0	0	1	1	0	0.4	1	1.1	0.9
53	1	0.0032	0.00096	0	0	1	1	0	0.4	1	1.1	0.9
54	1	0.0032	0.00096	0	0	1	1	0	0.4	1	1.1	0.9
55	1	0.0032	0.00096	0	0	1	1	0	0.4	1	1.1	0.9
56	1	0.0032	0.00096	0	0	1	1	0	0.4	1	1.1	0.9
57	1	0.0032	0.00096	0	0	1	1	0	0.4	1	1.1	0.9
58	1	0.0032	0.00096	0	0	1	1	0	0.4	1	1.1	0.9
59	1	0.0032	0.00096	0	0	1	1	0	0.4	1	1.1	0.9
60	1	0.0032	0.00096	0	0	1	1	0	0.4	1	1.1	0.9
61	1	0.0032	0.00096	0	0	1	1	0	0.4	1	1.1	0.9
62	1	0.0032	0.00096	0	0	1	1	0	0.4	1	1.1	0.9
63	1	0.0032	0.00096	0	0	1	1	0	0.4	1	1.1	0.9
64	1	0.0032	0.00096	0	0	1	1	0	0.4	1	1.1	0.9
65	1	0.0032	0.00096	0	0	1	1	0	0.4	1	1.1	0.9
66	1	0.0032	0.00096	0	0	1	1	0	0.4	1	1.1	0.9
67	1	0.0032	0.00096	0	0	1	1	0	0.4	1	1.1	0.9
68	1	0.0032	0.00096	0	0	1	1	0	0.4	1	1.1	0.9
69	1	0.0032	0.00096	0	0	1	1	0	0.4	1	1.1	0.9
70	1	0.0032	0.00096	0	0	1	1	0	0.4	1	1.1	0.9
71	1	0.0032	0.00096	0	0	1	1	0	0.4	1	1.1	0.9
72	1	0.0032	0.00096	0	0	1	1	0	0.4	1	1.1	0.9
73	1	0.0032	0.00096	0	0	1	1	0	0.4	1	1.1	0.9
74	1	0.0032	0.00096	0	0	1	1	0	0.4	1	1.1	0.9
75	1	0.0032	0.00096	0	0	1	1	0	0.4	1	1.1	0.9
76	1	0.0032	0.00096	0	0	1	1	0	0.4	1	1.1	0.9
77	1	0.0032	0.00096	0	0	1	1	0	0.4	1	1.1	0.9
78	1	0.0032	0.00096	0	0	1	1	0	0.4	1	1.1	0.9
79	1	0.0032	0.00096	0	0	1	1	0	0.4	1	1.1	0.9
80	1	0.0032	0.00096	0	0	1	1	0	0.4	1	1.1	0.9
81	1	0.0032	0.00096	0	0	1	1	0	0.4	1	1.1	0.9
82	1	0.0032	0.00096	0	0	1	1	0	0.4	1	1.1	0.9
83	1	0.0032	0.00096	0	0	1	1	0	0.4	1	1.1	0.9
84	1	0.0032	0.00096	0	0	1	1	0	0.4	1	1.1	0.9
85	1	0.0032	0.00096	0	0	1	1	0	0.4	1	1.1	0.9
86	1	0.0032	0.00096	0	0	1	1	0	0.4	1	1.1	0.9
87	1	0.0032	0.00096	0	0	1	1	0	0.4	1	1.1	0.9
88	1	0.0032	0.00096	0	0	1	1	0	0.4	1	1.1	0.9
89	1	0.0032	0.00096	0	0	1	1	0	0.4	1	1.1	0.9
90	1	0.0032	0.00096	0	0	1	1	0	0.4	1	1.1	0.9
91	1	0.0032	0.00096	0	0	1	1	0	0.4	1	1.1	0.9
92	1	0.0032	0.00096	0	0	1	1	0	0.4	1	1.1	0.9
93	1	0.0032	0.00096	0	0	1	1	0	0.4	1	1.1	0.9
94	1	0.0032	0.00096	0	0	1	1	0	0.4	1	1.1	0.9
95	1	0.0032	0.00096	0	0	1	1	0	0.4	1	1.1	0.9
96	1	0.0032	0.00096	0	0	1	1	0	0.4	1	1.1	0.9
97	1	0.0032	0.00096	0	0	1	1	0	0.4	1	1.1	0.9
98	1	0.0032	0.00096	0	0	1	1	0	0.4	1	1.1	0.9
99	1	0.0032	0.00096	0	0	1	1	0	0.4	1	1.1	0.9
100	1	0.0032	0.00096	0	0	1	1	0	0.4	1	1.1	0.9
101	1	0.0032	0.00096	0	0	1	1	0	0.4	1	1.1	0.9
102	1	0.0032	0.00096	0	0	1	1	0	0.4	1	1.1	0.9
103	1	0.0032	0.00096	0	0	1	1	0	0.4	1	1.1	0.9
104	1	0.0032	0.00096	0	0	1	1	0	0.4	1	1.1	0.9
105	1	0.0032	0.00096	0	0	1	1	0	0.4	1	1.1	0.9
106	1	0.0032	0.00096	0	0	1	1	0	0.4	1	1.1	0.9
107	1	0.0032	0.00096	0	0	1	1	0	0.4	1	1.1	0.9
108	1	0.0032	0.00096	0	0	1	1	0	0.4	1	1.1	0.9
109	1	0.0032	0.00096	0	0	1	1	0	0.4	1	1.1	0.9
110	1	0.0032	0.00096	0	0	1	1	0	0.4	1	1.1	0.9
111	1	0.0032	0.00096	0	0	1	1	0	0.4	1	1.1	0.9
112	1	0.0032	0.00096	0	0	1	1	0	0.4	1	1.1	0.9
113	1	0.0032	0.00096	0	0	1	1	0	0.4	1	1.1	0.9
114	1	0.0032	0.00096	0	0	1	1	0	0.4	1	1.1	0.9
115	1	0.0032	0.00096	0	0	1	1	0	0.4	1	1.1	0.9
116	1	0.0032	0.00096	0	0	1	1	0	0.4	1	1.1	0.9
117	1	0.0032	0.00096	0	0	1	1	0	0.4	1	1.1	0.9
118	1	0.0032	0.00096	0	0	1	1	0	0.4	1	1.1	0.9
119	1	0.0032	0.00096	0	0	1	1	0	0.4	1	1.1	0.9
120	1	0.0032	0.00096	0	0	1	1	0	0.4	1	1.1	0.9
121	1	0.0032	0.00096	0	0	1	1	0	0.4	1	1.1	0.9
122	1	0.0032	0.00096	0	0	1	1	0	0.4	1	1.1	0.9
123	1	0.0032	0.00096	0	0	1	1	0	0.4	1	1.1	0.9
124	1	0.0032	0.00096	0	0	1	1	0	0.4	1	1.1	0.9
125	1	0.0032	0.00096	0	0	1	1	0	0.4	1	1.1	0.9
126	1	0.0032	0.00096	0	0	1	1	0	0.4	1	1.1	0.9
127	1	0.0032	0.00096	0	0	1	1	0	0.4	1	1.1	0.9
128	1	0.0032	0.00096	0	0	1	1	0	0.4	1	1.1	0.9
129	1	0.0032	0.00096	0	0	1	1	0	0.4	1	1.1	0.9
130	1	0.0032	0.00096	0	0	1	1	0	0.4	1	1.1	0.9
131	1	0.0032	0.00096	0	0	1	1	0	0.4	1	1.1	0.9
132	1	0.0032	0.00096	0	0	1	1	0	0.4	1	1.1	0.9
133	1	0.0032	0.00096	0	0	1	1	0	0.4	1	1.1	0.9
134	1	0.0032	0.00096	0	0	1	1	0	0.4	1	1.1	0.9
135	1	0.0032	0.00096	0	0	1	1	0	0.4	1	1.1	0.9
136	1	0.0032	0.00096	0	0	1	1	0	0.4	1	1.1	0.9
137	1	0.0032	0.00096	0	0	1	1	0	0.4	1	1.1	0.9
138	1	0.0032	0.00096	0	0	1	1	0	0.4	1	1.1	0.9
139	1	0.0048	0.00144	0	0	1	1	0	0.4	1	1.1	0.9
140	1	0.0048	0.00144	0	0	1	1	0	0.4	1	1.1	0.9
141	1	0.0048	0.00144	0	0	1	1	0	0.4	1	1.1	0.9
142	1	0.0048	0.00144	0	0	1	1	0	0.4	1	1.1	0.9
143	1	0.0048	0.00144	0	0	1	1	0	0.4	1	1.1	0.9
144	1	0.0048	0.00144	0	0	1	1	0	0.4	1	1.1	0.9
145	1	0.0048	0.00144	0	0	1	1	0	0.4	1	1.1	0.9
146	1	0.0048	0.00144	0	0	1	1	0	0.4	1	1.1	0.9
147	1	0.0048	0.00144	0	0	1	1	0	0.4	1	1.1	0.9
148	1	0.0048	0.00144	0	0	1	1	0	0.4	1	1.1	0.9
149	1	0.0048	0.00144	0	0	1	1	0	0.4	1	1.1	0.9
150	1	0.0048	0.00144	0	0	1	1	0	0.4	1	1.1	0.9
151	1	0.0048	0.00144	0	0	1	1	0	0.4	1	1.1	0.9
152	1	0.0048	0.00144	0	0	1	1	0	0.4	1	1.1	0.9
153	1	0.0048	0.00144	0	0	1	1	0	0.4	1	1.1	0.9
154	1	0.0048	0.00144	0	0	1	1	0	0.4	1	1.1	0.9
155	1	0.0048	0.00144	0	0	1	1	0	0.4	1	1.1	0.9
156	1	0.0048	0.00144	0	0	1	1	0	0.4	1	1.1	0.9
157	1	0.0048	0.00144	0	0	1	1	0	0.4	1	1.1	0.9
158	1	0.0048	0.00144	0	0	1	1	0	0.4	1	1.1	0.9
159	1	0.0048	0.00144	0	0	1	1	0	0.4	1	1.1	0.9
160	1	0.0048	0.00144	0	0	1	1	0	0.4	1	1.1	0.9
161	1	0.0048	0.00144	0	0	1	1	0	0.4	1	1.1	0.9
162	1	0.0008	0.00024	0	0	1	1	0	0.4	1	1.1	0.9
163	1	0.0008	0.00024	0	0	1	1	0	0.4	1	1.1	0.9
164	1	0.0008	0.00024	0	0	1	1	0	0.4	1	1.1	0.9
165	1	0.0008	0.00024	0	0	1	1	0	0.4	1	1.1	0.9
166	1	0.0008	0.00024	0	0	1	1	0	0.4	1	1.1	0.9
167	1	0.0008	0.00024	0	0	1	1	0	0.4	1	1.1	0.9
168	1	0.0008	0.00024	0	0	1	1	0	0.4	1	1.1	0.9
169	1	0.0008	0.00024	0	0	1	1	0	0.4	1	1.1	0.9
170	1	0.0008	0.00024	0	0	1	1	0	0.4	1	1.1	0.9
171	1	0.0008	0.00024	0	0	1	1	0	0.4	1	1.1	0.9
172	1	0.0008	0.00024	0	0	1	1	0	0.4	1	1.1	0.9
173	1	0.0008	0.00024	0	0	1	1	0	0.4	1	1.1	0.9
174	1	0.0008	0.00024	0	0	1	1	0	0.4	1	1.1	0.9
175	1	0.0008	0.00024	0	0	1	1	0	0.4	1	1.1	0.9
176	1	0.0008	0.00024	0	0	1	1	0	0.4	1	1.1	0.9
177	1	0.0008	0.00024	0	0	1	1	0	0.4	1	1.1	0.9
178	1	0.0008	0.00024	0	0	1	1	0	0.4	1	1.1	0.9
179	1	0.0008	0.00024	0	0	1	1	0	0.4	1	1.1	0.9
180	1	0.0008	0.00024	0	0	1	1	0	0.4	1	1.1	0.9
181	1	0.0008	0.00024	0	0	1	1	0	0.4	1	1.1	0.9
182	1	0.0008	0.00024	0	0	1	1	0	0.4	1	1.1	0.9
183	1	0.0008	0.00024	0	0	1	1	0	0.4	1	1.1	0.9
184	1	0.0008	0.00024	0	0	1	1	0	0.4	1	1.1	0.9
185	1	0.0008	0.00024	0	0	1	1	0	0.4	1	1.1	0.9
186	1	0.0008	0.00024	0	0	1	1	0	0.4	1	1.1	0.9
187	1	0.0008	0.00024	0	0	1	1	0	0.4	1	1.1	0.9
188	1	0.0008	0.00024	0	0	1	1	0	0.4	1	1.1	0.9
189	1	0.0008	0.00024	0	0	1	1	0	0.4	1	1.1	0.9
190	1	0.0008	0.00024	0	0	1	1	0	0.4	1	1.1	0.9
191	1	0.0008	0.00024	0	0	1	1	0	0.4	1	1.1	0.9
192	1	0.0008	0.00024	0	0	1	1	0	0.4	1	1.1	0.9
193	1	0.0008	0.00024	0	0	1	1	0	0.4	1	1.1	0.9
194	1	0.0008	0.00024	0	0	1	1	0	0.4	1	1.1	0.9
195	1	0.0008	0.00024	0	0	1	1	0	0.4	1	1.1	0.9
196	1	0.0008	0.00024	0	0	1	1	0	0.4	1	1.1	0.9
197	1	0.0008	0.00024	0	0	1	1	0	0.4	1	1.1	0.9
198	1	0.0008	0.00024	0	0	1	1	0	0.4	1	1.1	0.9
199	1	0.0008	0.00024	0	0	1	1	0	0.4	1	1.1	0.9
200	1	0.0008	0.00024	0	0	1	1	0	0.4	1	1.1	0.9
...
];
%% generator data
% bus Pg Qg Qmax Qmin Vg mBase status Pmax Pmin Pc1 Pc2 Qc1min Qc1max Qc2min Qc2max ramp_agc ramp_10 ramp_30 ramp_q apf
mpc.gen = [
1 0 0 1000 -1000 1.0 1 1 1000 0 0 0 0 0 0 0 0 0 0 0 0];
%% branch data
%fbus tbus	r x b rA rB rC rat ang status angmin angmax
mpc.branch = [
487	2289	0.0344906	0.0066325	0	0.176669	0.176669	0.176669	0	0	1	-360	360
488	2455	0.0429662	0.0082625	0	0.176669	0.176669	0.176669	0	0	1	-360	360
489	2900	0.0343181	0.00245131	0	0.069282	0.069282	0.069282	0	0	1	-360	360
490	1996	0.0299325	0.00575625	0	0.176669	0.176669	0.176669	0	0	1	-360	360
491	822	0.0429662	0.0082625	0	0.176669	0.176669	0.176669	0	0	1	-360	360
492	1332	0.0434338	0.00310244	0	0.069282	0.069282	0.069282	0	0	1	-360	360
493	2311	0.0299325	0.00575625	0	0.176669	0.176669	0.176669	0	0	1	-360	360
482	893	0.0427012	0.0133438	0	0.159349	0.159349	0.159349	0	0	1	-360	360
483	1365	0.077075	0.0148225	0	0.176669	0.176669	0.176669	0	0	1	-360	360
484	75	0.0176112	0.00338681	0	0.176669	0.176669	0.176669	0	0	1	-360	360
485	450	0.0299325	0.00575625	0	0.176669	0.176669	0.176669	0	0	1	-360	360
486	2987	4.00E-05	2.00E-05	0	0.176669	0.176669	0.176669	0	0	1	-360	360
495	1602	0.0342225	0.00658125	0	0.176669	0.176669	0.176669	0	0	1	-360	360
496	261	0.0528869	0.0101706	0	0.176669	0.176669	0.176669	0	0	1	-360	360
497	1350	0.0500587	0.00962688	0	0.176669	0.176669	0.176669	0	0	1	-360	360
498	1729	0.0344875	0.00663187	0	0.176669	0.176669	0.176669	0	0	1	-360	360
494	2077	0.0344631	0.0066275	0	0.176669	0.176669	0.176669	0	0	1	-360	360
162	483	0.0382619	0.00735813	0	0.176669	0.176669	0.176669	0	0	1	-360	360
163	2377	0.0396969	0.012405	0	0.159349	0.159349	0.159349	0	0	1	-360	360
164	458	0.253169	0.0180837	0	0.069282	0.069282	0.069282	0	0	1	-360	360
165	611	0.0573713	0.0110331	0	0.176669	0.176669	0.176669	0	0	1	-360	360
166	1570	0.0256425	0.00493125	0	0.176669	0.176669	0.176669	0	0	1	-360	360
167	2024	0.0387237	0.00744688	0	0.176669	0.176669	0.176669	0	0	1	-360	360
168	2988	0.875	0.0625	0	0.069282	0.069282	0.069282	0	0	1	-360	360
169	2989	0.02303	0.01316	0	0.290985	0.290985	0.290985	0	0	1	-360	360
170	249	0.0344781	0.00663063	0	0.176669	0.176669	0.176669	0	0	1	-360	360
171	1839	0.0684188	0.0131581	0	0.176669	0.176669	0.176669	0	0	1	-360	360
172	734	0.0352519	0.00677938	0	0.176669	0.176669	0.176669	0	0	1	-360	360
173	1941	0.05359	0.0103056	0	0.176669	0.176669	0.176669	0	0	1	-360	360
174	2745	0.0311312	0.00598675	0	0.176669	0.176669	0.176669	0	0	1	-360	360
175	2559	0.0213769	0.00411094	0	0.176669	0.176669	0.176669	0	0	1	-360	360
176	2990	0.0738063	0.0141938	0	0.176669	0.176669	0.176669	0	0	1	-360	360
177	2175	0.0600212	0.0115425	0	0.176669	0.176669	0.176669	0	0	1	-360	360
178	202	0.0460644	0.00885875	0	0.176669	0.176669	0.176669	0	0	1	-360	360
179	1965	0.059865	0.0115125	0	0.176669	0.176669	0.176669	0	0	1	-360	360
180	1191	0.0234775	0.0134156	0	0.290985	0.290985	0.290985	0	0	1	-360	360
181	2041	0.0460738	0.00886	0	0.176669	0.176669	0.176669	0	0	1	-360	360
182	1339	0.025995	0.004999	0	0.176669	0.176669	0.176669	0	0	1	-360	360
183	2842	0.0213769	0.00411094	0	0.176669	0.176669	0.176669	0	0	1	-360	360
184	1752	0.0219781	0.0125588	0	0.290985	0.290985	0.290985	0	0	1	-360	360
185	2349	0.0341981	0.00657625	0	0.176669	0.176669	0.176669	0	0	1	-360	360
186	241	0.0686375	0.00490256	0	0.069282	0.069282	0.069282	0	0	1	-360	360
187	316	0.0557625	0.0107237	0	0.176669	0.176669	0.176669	0	0	1	-360	360
188	1574	0.21375	0.0152681	0	0.069282	0.069282	0.069282	0	0	1	-360	360
189	735	0.0311312	0.00598675	0	0.176669	0.176669	0.176669	0	0	1	-360	360
190	2365	0.0302381	0.00581506	0	0.176669	0.176669	0.176669	0	0	1	-360	360
191	116	0.0647	0.0124419	0	0.176669	0.176669	0.176669	0	0	1	-360	360
192	1414	0.01238	0.00707437	0	0.290985	0.290985	0.290985	0	0	1	-360	360
193	2300	0.0405706	0.00780187	0	0.176669	0.176669	0.176669	0	0	1	-360	360
194	613	0.0260231	0.00500444	0	0.176669	0.176669	0.176669	0	0	1	-360	360
195	875	0.0308475	0.00593225	0	0.176669	0.176669	0.176669	0	0	1	-360	360
196	352	0.0635875	0.0122288	0	0.176669	0.176669	0.176669	0	0	1	-360	360
197	1572	0.0429925	0.00826812	0	0.176669	0.176669	0.176669	0	0	1	-360	360
198	2283	0.0427781	0.00822625	0	0.176669	0.176669	0.176669	0	0	1	-360	360
199	2450	0.0325725	0.00626375	0	0.176669	0.176669	0.176669	0	0	1	-360	360
200	1804	0.0365225	0.00702375	0	0.176669	0.176669	0.176669	0	0	1	-360	360
201	2991	4.00E-05	2.00E-05	0	0.290985	0.290985	0.290985	0	0	1	-360	360
42	1164	0.059865	0.0115125	0	0.176669	0.176669	0.176669	0	0	1	-360	360
43	1212	0.0299325	0.00575625	0	0.176669	0.176669	0.176669	0	0	1	-360	360
44	2103	0.0421206	0.0081	0	0.176669	0.176669	0.176669	0	0	1	-360	360
45	1087	0.0302588	0.00581906	0	0.176669	0.176669	0.176669	0	0	1	-360	360
46	2813	0.0135125	0.0025985	0	0.176669	0.176669	0.176669	0	0	1	-360	360
47	2625	0.0604731	0.0116294	0	0.176669	0.176669	0.176669	0	0	1	-360	360
48	219	0.0427781	0.00822625	0	0.176669	0.176669	0.176669	0	0	1	-360	360
49	2330	0.0313675	0.0098025	0	0.159349	0.159349	0.159349	0	0	1	-360	360
50	2697	0.0299325	0.00575625	0	0.176669	0.176669	0.176669	0	0	1	-360	360
51	837	0.160263	0.0114475	0	0.069282	0.069282	0.069282	0	0	1	-360	360
52	1143	0.0286694	0.00551331	0	0.176669	0.176669	0.176669	0	0	1	-360	360
53	1405	0.0462481	0.00889375	0	0.176669	0.176669	0.176669	0	0	1	-360	360
54	117	0.0131106	0.00749188	0	0.290985	0.290985	0.290985	0	0	1	-360	360
55	1615	0.0256425	0.00493125	0	0.176669	0.176669	0.176669	0	0	1	-360	360
56	2407	0.0344781	0.00663063	0	0.176669	0.176669	0.176669	0	0	1	-360	360
57	2601	0.014485	0.00827687	0	0.290985	0.290985	0.290985	0	0	1	-360	360
58	2992	4.00E-05	2.00E-05	0	0.159349	0.159349	0.159349	0	0	1	-360	360
59	2808	0.0128456	0.00247031	0	0.176669	0.176669	0.176669	0	0	1	-360	360
60	2759	0.00855562	0.00164531	0	0.176669	0.176669	0.176669	0	0	1	-360	360
61	697	0.0230244	0.00442781	0	0.176669	0.176669	0.176669	0	0	1	-360	360
62	2715	0.00921375	0.005265	0	0.290985	0.290985	0.290985	0	0	1	-360	360
63	1772	0.0387237	0.00744688	0	0.176669	0.176669	0.176669	0	0	1	-360	360
64	48	0.0256425	0.00493125	0	0.176669	0.176669	0.176669	0	0	1	-360	360
65	2409	0.0365481	0.00702875	0	0.176669	0.176669	0.176669	0	0	1	-360	360
66	2993	0.134781	0.0770187	0	0.290985	0.290985	0.290985	0	0	1	-360	360
67	1670	0.0365456	0.00702813	0	0.176669	0.176669	0.176669	0	0	1	-360	360
68	1023	0.0135125	0.0025985	0	0.176669	0.176669	0.176669	0	0	1	-360	360
69	2622	0.0341981	0.00657625	0	0.176669	0.176669	0.176669	0	0	1	-360	360
70	1703	0.0478156	0.009195	0	0.176669	0.176669	0.176669	0	0	1	-360	360
71	577	0.0394275	0.0075825	0	0.176669	0.176669	0.176669	0	0	1	-360	360
72	2581	0.0387262	0.0074475	0	0.176669	0.176669	0.176669	0	0	1	-360	360
73	2219	0.0472369	0.00908375	0	0.176669	0.176669	0.176669	0	0	1	-360	360
74	342	0.0302313	0.00581375	0	0.176669	0.176669	0.176669	0	0	1	-360	360
75	2698	0.0515056	0.009905	0	0.176669	0.176669	0.176669	0	0	1	-360	360
76	1752	0.055755	0.0107219	0	0.176669	0.176669	0.176669	0	0	1	-360	360
77	1698	0.139044	0.00993187	0	0.069282	0.069282	0.069282	0	0	1	-360	360
78	1300	0.0352519	0.00677938	0	0.176669	0.176669	0.176669	0	0	1	-360	360
79	2994	4.00E-05	2.00E-05	0	0.290985	0.290985	0.290985	0	0	1	-360	360
80	2995	4.00E-05	2.00E-05	0	0.290985	0.290985	0.290985	0	0	1	-360	360
81	1229	0.0260131	0.00500256	0	0.176669	0.176669	0.176669	0	0	1	-360	360
82	2996	0.0308275	0.00592837	0	0.176669	0.176669	0.176669	0	0	1	-360	360
83	1377	0.0218031	0.00419287	0	0.176669	0.176669	0.176669	0	0	1	-360	360
84	2997	0.0454481	0.0259706	0	0.290985	0.290985	0.290985	0	0	1	-360	360
85	2998	0.0255425	0.00798187	0	0.159349	0.159349	0.159349	0	0	1	-360	360
86	317	0.0173675	0.00992437	0	0.290985	0.290985	0.290985	0	0	1	-360	360
87	2999	0.116175	0.0223413	0	0.176669	0.176669	0.176669	0	0	1	-360	360
88	806	0.0341981	0.00657625	0	0.176669	0.176669	0.176669	0	0	1	-360	360
89	3000	4.00E-05	2.00E-05	0	0.290985	0.290985	0.290985	0	0	1	-360	360
90	1236	0.0153475	0.00877	0	0.290985	0.290985	0.290985	0	0	1	-360	360
91	562	0.02868	0.00551537	0	0.176669	0.176669	0.176669	0	0	1	-360	360
92	1621	0.0470437	0.00904687	0	0.176669	0.176669	0.176669	0	0	1	-360	360
93	665	0.0344875	0.00663187	0	0.176669	0.176669	0.176669	0	0	1	-360	360
94	1567	0.0217981	0.004192	0	0.176669	0.176669	0.176669	0	0	1	-360	360
95	1477	0.0158044	0.00903125	0	0.290985	0.290985	0.290985	0	0	1	-360	360
96	467	0.0971188	0.0069375	0	0.069282	0.069282	0.069282	0	0	1	-360	360
97	2190	0.0260231	0.00500444	0	0.176669	0.176669	0.176669	0	0	1	-360	360
98	1121	0.0429688	0.00826312	0	0.176669	0.176669	0.176669	0	0	1	-360	360
99	2865	0.0394331	0.00758313	0	0.176669	0.176669	0.176669	0	0	1	-360	360
100	2141	0.0308275	0.00592837	0	0.176669	0.176669	0.176669	0	0	1	-360	360
101	572	0.0213769	0.00411094	0	0.176669	0.176669	0.176669	0	0	1	-360	360
102	698	0.0535787	0.0103038	0	0.176669	0.176669	0.176669	0	0	1	-360	360
103	1113	0.0403631	0.00776187	0	0.176669	0.176669	0.176669	0	0	1	-360	360
104	2672	0.10745	0.007675	0	0.069282	0.069282	0.069282	0	0	1	-360	360
105	2516	0.0470194	0.0090425	0	0.176669	0.176669	0.176669	0	0	1	-360	360
106	402	0.0440262	0.00846687	0	0.176669	0.176669	0.176669	0	0	1	-360	360
107	2760	0.012285	0.00702	0	0.290985	0.290985	0.290985	0	0	1	-360	360
108	1085	0.0213769	0.00411094	0	0.176669	0.176669	0.176669	0	0	1	-360	360
109	3001	0.0191312	0.003679	0	0.176669	0.176669	0.176669	0	0	1	-360	360
110	360	0.0249269	0.00479363	0	0.176669	0.176669	0.176669	0	0	1	-360	360
111	3002	0.03018	0.00943125	0	0.159349	0.159349	0.159349	0	0	1	-360	360
112	3003	0.0138163	0.007895	0	0.290985	0.290985	0.290985	0	0	1	-360	360
113	2088	0.0344875	0.00663187	0	0.176669	0.176669	0.176669	0	0	1	-360	360
114	120	0.121681	0.0234	0	0.176669	0.176669	0.176669	0	0	1	-360	360
115	1976	0.0256669	0.00493594	0	0.176669	0.176669	0.176669	0	0	1	-360	360
116	1885	0.012285	0.00702	0	0.290985	0.290985	0.290985	0	0	1	-360	360
117	1762	0.00934125	0.00533806	0	0.290985	0.290985	0.290985	0	0	1	-360	360
118	2695	0.0405675	0.00780125	0	0.176669	0.176669	0.176669	0	0	1	-360	360
119	2931	0.0535787	0.0103038	0	0.176669	0.176669	0.176669	0	0	1	-360	360
120	3004	0.216044	0.0415463	0	0.176669	0.176669	0.176669	0	0	1	-360	360
121	2613	0.105869	0.02036	0	0.176669	0.176669	0.176669	0	0	1	-360	360
499	153	0.0135356	0.00260294	0	0.176669	0.176669	0.176669	0	0	1	-360	360
500	2914	0.0213962	0.00411469	0	0.176669	0.176669	0.176669	0	0	1	-360	360
501	1654	0.0405675	0.00780125	0	0.176669	0.176669	0.176669	0	0	1	-360	360
502	809	0.0622625	0.0119738	0	0.176669	0.176669	0.176669	0	0	1	-360	360
503	867	0.0427637	0.00822375	0	0.176669	0.176669	0.176669	0	0	1	-360	360
504	2268	0.0218225	0.00419656	0	0.176669	0.176669	0.176669	0	0	1	-360	360
505	3005	0.0186731	0.0106706	0	0.290985	0.290985	0.290985	0	0	1	-360	360
506	2429	0.0427781	0.00822625	0	0.176669	0.176669	0.176669	0	0	1	-360	360
507	3006	4.00E-05	2.00E-05	0	0.290985	0.290985	0.290985	0	0	1	-360	360
508	979	0.0352756	0.00678375	0	0.176669	0.176669	0.176669	0	0	1	-360	360
509	2717	0.0342225	0.00658125	0	0.176669	0.176669	0.176669	0	0	1	-360	360
510	3007	0.012285	0.00702	0	0.290985	0.290985	0.290985	0	0	1	-360	360
511	1280	0.0440262	0.00846687	0	0.176669	0.176669	0.176669	0	0	1	-360	360
512	1682	0.0478	0.0091925	0	0.176669	0.176669	0.176669	0	0	1	-360	360
513	2908	0.0342225	0.00658125	0	0.176669	0.176669	0.176669	0	0	1	-360	360
514	1351	0.0352519	0.00677938	0	0.176669	0.176669	0.176669	0	0	1	-360	360
515	1792	0.0213769	0.00411094	0	0.176669	0.176669	0.176669	0	0	1	-360	360
516	2987	0.030235	0.00581444	0	0.176669	0.176669	0.176669	0	0	1	-360	360
517	2233	0.0341981	0.00657625	0	0.176669	0.176669	0.176669	0	0	1	-360	360
518	2445	0.0256425	0.00493125	0	0.176669	0.176669	0.176669	0	0	1	-360	360
539	270	0.0514881	0.00990188	0	0.176669	0.176669	0.176669	0	0	1	-360	360
540	3008	0.0641313	0.0123331	0	0.176669	0.176669	0.176669	0	0	1	-360	360
541	3009	4.00E-05	2.00E-05	0	0.290985	0.290985	0.290985	0	0	1	-360	360
542	94	0.027055	0.00520294	0	0.176669	0.176669	0.176669	0	0	1	-360	360
543	2474	0.0302381	0.00581506	0	0.176669	0.176669	0.176669	0	0	1	-360	360
544	3010	0.0616013	0.0352006	0	0.290985	0.290985	0.290985	0	0	1	-360	360
545	1614	0.0403506	0.00775937	0	0.176669	0.176669	0.176669	0	0	1	-360	360
546	939	0.0342225	0.00658125	0	0.176669	0.176669	0.176669	0	0	1	-360	360
547	1884	0.0256669	0.00493594	0	0.176669	0.176669	0.176669	0	0	1	-360	360
548	1223	0.0325631	0.00626188	0	0.176669	0.176669	0.176669	0	0	1	-360	360
549	2683	0.0344875	0.00663187	0	0.176669	0.176669	0.176669	0	0	1	-360	360
550	1426	0.169569	0.0121119	0	0.069282	0.069282	0.069282	0	0	1	-360	360
551	2636	0.027055	0.00520294	0	0.176669	0.176669	0.176669	0	0	1	-360	360
552	152	0.0128213	0.00246562	0	0.176669	0.176669	0.176669	0	0	1	-360	360
553	1624	0.0176406	0.00339244	0	0.176669	0.176669	0.176669	0	0	1	-360	360
554	834	0.0170869	0.00328594	0	0.176669	0.176669	0.176669	0	0	1	-360	360
555	3011	4.00E-05	2.00E-05	0	0.290985	0.290985	0.290985	0	0	1	-360	360
556	630	0.0352512	0.00677938	0	0.176669	0.176669	0.176669	0	0	1	-360	360
557	180	0.0110712	0.00632625	0	0.290985	0.290985	0.290985	0	0	1	-360	360
558	2014	0.0218225	0.00419656	0	0.176669	0.176669	0.176669	0	0	1	-360	360
519	540	0.0555994	0.0106919	0	0.176669	0.176669	0.176669	0	0	1	-360	360
520	1642	0.0384881	0.00740187	0	0.176669	0.176669	0.176669	0	0	1	-360	360
521	2658	0.0352619	0.0110194	0	0.159349	0.159349	0.159349	0	0	1	-360	360
522	1342	0.0299325	0.00575625	0	0.176669	0.176669	0.176669	0	0	1	-360	360
523	1333	0.0384881	0.00740125	0	0.176669	0.176669	0.176669	0	0	1	-360	360
524	2381	0.0218225	0.00419656	0	0.176669	0.176669	0.176669	0	0	1	-360	360
525	2803	0.0214013	0.00411563	0	0.176669	0.176669	0.176669	0	0	1	-360	360
526	2049	0.0384881	0.00740187	0	0.176669	0.176669	0.176669	0	0	1	-360	360
527	876	0.052025	0.010005	0	0.176669	0.176669	0.176669	0	0	1	-360	360
528	2879	0.0230256	0.00442794	0	0.176669	0.176669	0.176669	0	0	1	-360	360
529	3012	0.12595	0.0242206	0	0.176669	0.176669	0.176669	0	0	1	-360	360
530	2441	0.030235	0.00581444	0	0.176669	0.176669	0.176669	0	0	1	-360	360
531	1971	0.0249606	0.00480006	0	0.176669	0.176669	0.176669	0	0	1	-360	360
532	1248	0.0344781	0.00663063	0	0.176669	0.176669	0.176669	0	0	1	-360	360
533	945	0.0421206	0.0081	0	0.176669	0.176669	0.176669	0	0	1	-360	360
534	549	0.0341981	0.00657625	0	0.176669	0.176669	0.176669	0	0	1	-360	360
535	1031	0.0394275	0.0075825	0	0.176669	0.176669	0.176669	0	0	1	-360	360
536	2359	0.184825	0.0132019	0	0.069282	0.069282	0.069282	0	0	1	-360	360
537	2065	0.01352	0.0026	0	0.176669	0.176669	0.176669	0	0	1	-360	360
538	2101	0.0547487	0.0105288	0	0.176669	0.176669	0.176669	0	0	1	-360	360
579	2828	0.0299325	0.00575625	0	0.176669	0.176669	0.176669	0	0	1	-360	360
580	2093	0.0403506	0.00775937	0	0.176669	0.176669	0.176669	0	0	1	-360	360
581	1461	0.0352756	0.00678375	0	0.176669	0.176669	0.176669	0	0	1	-360	360
...
];
